Gatto_2009_11
  -OEChem-02162215383D
mmff94smod = 99.70
 64 67  0     0  0  0  0  0  0999 V2000
    5.7872   -3.3097    1.0830 C   0  0  0  0  0  0  0  0  0  0  0  0
    6.0138   -3.2544   -0.2922 C   0  0  0  0  0  0  0  0  0  0  0  0
    5.4050   -0.9244    1.1160 C   0  0  0  0  0  0  0  0  0  0  0  0
    7.0628   -1.9548    6.4929 C   0  0  0  0  0  0  0  0  0  0  0  0
    5.4701   -2.2343    8.2917 C   0  0  0  0  0  0  0  0  0  0  0  0
    5.4827   -2.1447    1.7871 C   0  0  0  0  0  0  0  0  0  0  0  0
    4.7434   -2.3216    5.9874 C   0  0  0  0  0  0  0  0  0  0  0  0
    6.0576   -2.1040    5.5177 C   0  0  0  0  0  0  0  0  0  0  0  0
    5.6316   -0.8690   -0.2592 C   0  0  0  0  0  0  0  0  0  0  0  0
    5.9360   -2.0341   -0.9633 C   0  0  0  0  0  0  0  0  0  0  0  0
    6.7733   -2.0189    7.8603 C   0  0  0  0  0  0  0  0  0  0  0  0
    4.4514   -2.3864    7.3576 C   0  0  0  0  0  0  0  0  0  0  0  0
    3.9690   -2.4128    3.5854 C   0  0  0  0  0  0  0  0  0  0  0  0
    5.2456   -2.2031    3.2243 C   0  0  0  0  0  0  0  0  0  0  0  0
    3.6331   -2.4870    5.0217 C   0  0  0  0  0  0  0  0  0  0  0  0
    2.7328   -2.9082   -4.8290 C   0  0  0  0  0  0  0  0  0  0  0  0
    3.2336   -1.7632   -5.6862 C   0  0  0  0  0  0  0  0  0  0  0  0
    3.9765   -3.7508   -4.6450 C   0  0  0  0  0  0  0  0  0  0  0  0
    4.5938   -1.4302   -5.0987 C   0  0  0  0  0  0  0  0  0  0  0  0
    7.6961   -1.8180    3.7002 C   0  0  0  0  0  0  0  0  0  0  0  0
    7.4126   -1.9454   10.1498 C   0  0  0  0  0  0  0  0  0  0  0  0
    2.3927   -1.4409    8.0811 C   0  0  0  0  0  0  0  0  0  0  0  0
    7.4886   -2.3314   -4.2777 C   0  0  0  0  0  0  0  0  0  0  0  0
    6.4139   -3.1822   -4.9325 C   0  0  0  0  0  0  0  0  0  0  0  0
    7.4380   -2.4447   -2.7609 C   0  0  0  0  0  0  0  0  0  0  0  0
    6.3098   -2.0451    4.1177 N   0  0  0  0  0  0  0  0  0  0  0  0
    5.5504    0.3729   -0.9258 N   0  0  0  0  0  0  0  0  0  0  0  0
    5.0713   -2.7227   -4.4623 N   0  3  0  0  0  0  0  0  0  0  0  0
    2.4709   -2.6788    5.3565 O   0  0  0  0  0  0  0  0  0  0  0  0
    7.7741   -1.8696    8.7722 O   0  0  0  0  0  0  0  0  0  0  0  0
    3.1927   -2.5957    7.8372 O   0  0  0  0  0  0  0  0  0  0  0  0
    6.1608   -2.0017   -2.3074 O   0  0  0  0  0  0  0  0  0  0  0  0
    5.8511   -4.2686    1.5919 H   0  0  0  0  0  0  0  0  0  0  0  0
    6.2503   -4.1657   -0.8348 H   0  0  0  0  0  0  0  0  0  0  0  0
    5.1677   -0.0132    1.6621 H   0  0  0  0  0  0  0  0  0  0  0  0
    8.0991   -1.7848    6.2112 H   0  0  0  0  0  0  0  0  0  0  0  0
    5.2504   -2.2832    9.3552 H   0  0  0  0  0  0  0  0  0  0  0  0
    3.1594   -2.5322    2.8727 H   0  0  0  0  0  0  0  0  0  0  0  0
    2.3716   -2.5366   -3.8628 H   0  0  0  0  0  0  0  0  0  0  0  0
    1.9230   -3.4633   -5.3104 H   0  0  0  0  0  0  0  0  0  0  0  0
    3.3428   -2.0907   -6.7270 H   0  0  0  0  0  0  0  0  0  0  0  0
    2.5553   -0.9052   -5.6686 H   0  0  0  0  0  0  0  0  0  0  0  0
    3.9485   -4.3934   -3.7623 H   0  0  0  0  0  0  0  0  0  0  0  0
    4.2059   -4.3311   -5.5442 H   0  0  0  0  0  0  0  0  0  0  0  0
    5.3131   -1.1049   -5.8555 H   0  0  0  0  0  0  0  0  0  0  0  0
    4.5245   -0.6881   -4.2977 H   0  0  0  0  0  0  0  0  0  0  0  0
    8.2071   -2.7848    3.5820 H   0  0  0  0  0  0  0  0  0  0  0  0
    7.7065   -1.2783    2.7417 H   0  0  0  0  0  0  0  0  0  0  0  0
    8.2154   -1.2198    4.4635 H   0  0  0  0  0  0  0  0  0  0  0  0
    8.3028   -1.8102   10.7689 H   0  0  0  0  0  0  0  0  0  0  0  0
    6.9572   -2.9175   10.3550 H   0  0  0  0  0  0  0  0  0  0  0  0
    6.6930   -1.1540   10.3726 H   0  0  0  0  0  0  0  0  0  0  0  0
    1.4149   -1.7477    8.4605 H   0  0  0  0  0  0  0  0  0  0  0  0
    2.2744   -0.8758    7.1532 H   0  0  0  0  0  0  0  0  0  0  0  0
    2.8899   -0.8149    8.8259 H   0  0  0  0  0  0  0  0  0  0  0  0
    7.3749   -1.2789   -4.5671 H   0  0  0  0  0  0  0  0  0  0  0  0
    8.4837   -2.6303   -4.6309 H   0  0  0  0  0  0  0  0  0  0  0  0
    6.5023   -4.2375   -4.6579 H   0  0  0  0  0  0  0  0  0  0  0  0
    6.4197   -3.0830   -6.0220 H   0  0  0  0  0  0  0  0  0  0  0  0
    8.2081   -1.8205   -2.2967 H   0  0  0  0  0  0  0  0  0  0  0  0
    7.5800   -3.4822   -2.4419 H   0  0  0  0  0  0  0  0  0  0  0  0
    5.2852    1.1859   -0.4090 H   0  0  0  0  0  0  0  0  0  0  0  0
    5.6669    0.4007   -1.9179 H   0  0  0  0  0  0  0  0  0  0  0  0
    5.1462   -2.5442   -3.4503 H   0  0  0  0  0  0  0  0  0  0  0  0
  1  2  1  0  0  0  0
  1  6  2  0  0  0  0
  2 10  2  0  0  0  0
  3  6  1  0  0  0  0
  3  9  2  0  0  0  0
  4  8  2  0  0  0  0
  4 11  1  0  0  0  0
  5 11  2  0  0  0  0
  5 12  1  0  0  0  0
  6 14  1  0  0  0  0
  7  8  1  0  0  0  0
  7 12  2  0  0  0  0
  7 15  1  0  0  0  0
  8 26  1  0  0  0  0
  9 10  1  0  0  0  0
  9 27  1  0  0  0  0
 10 32  1  0  0  0  0
 11 30  1  0  0  0  0
 12 31  1  0  0  0  0
 13 14  2  0  0  0  0
 13 15  1  0  0  0  0
 14 26  1  0  0  0  0
 15 29  2  0  0  0  0
 16 17  1  0  0  0  0
 16 18  1  0  0  0  0
 17 19  1  0  0  0  0
 18 28  1  0  0  0  0
 19 28  1  0  0  0  0
 20 26  1  0  0  0  0
 21 30  1  0  0  0  0
 22 31  1  0  0  0  0
 23 24  1  0  0  0  0
 23 25  1  0  0  0  0
 24 28  1  0  0  0  0
 25 32  1  0  0  0  0
  1 33  1  0  0  0  0
  2 34  1  0  0  0  0
  3 35  1  0  0  0  0
  4 36  1  0  0  0  0
  5 37  1  0  0  0  0
 13 38  1  0  0  0  0
 16 39  1  0  0  0  0
 16 40  1  0  0  0  0
 17 41  1  0  0  0  0
 17 42  1  0  0  0  0
 18 43  1  0  0  0  0
 18 44  1  0  0  0  0
 19 45  1  0  0  0  0
 19 46  1  0  0  0  0
 20 47  1  0  0  0  0
 20 48  1  0  0  0  0
 20 49  1  0  0  0  0
 21 50  1  0  0  0  0
 21 51  1  0  0  0  0
 21 52  1  0  0  0  0
 22 53  1  0  0  0  0
 22 54  1  0  0  0  0
 22 55  1  0  0  0  0
 23 56  1  0  0  0  0
 23 57  1  0  0  0  0
 24 58  1  0  0  0  0
 24 59  1  0  0  0  0
 25 60  1  0  0  0  0
 25 61  1  0  0  0  0
 27 62  1  0  0  0  0
 27 63  1  0  0  0  0
 28 64  1  0  0  0  0
M  CHG  1  28   1
M  END
> <mmff94smod>
99.70

$$$$
